16
energy: -21.783643945632 gnorm: 0.000027562041 xtb: 6.5.1 (9af7eec)
C          1.77230       -0.34970       -0.34590
H          2.46700       -0.56730       -1.16020
O          2.50440        0.43820        0.57080
C          0.51560        0.33630       -0.88690
H         -0.08260       -0.42700       -1.38880
H         -0.07340        0.71730       -0.04630
C          0.77800        1.47280       -1.87970
H         -0.17460        1.74780       -2.33660
H          1.44230        1.12100       -2.67130
H          1.93220        0.66750        1.31220
H          1.48930       -1.29860        0.13070
C          1.39010        2.73990       -1.26510
H          1.23830        3.57760       -1.95180
H          0.87150        2.97760       -0.32170
O          2.77470        2.66790       -1.06810
H          2.95520        1.91940       -0.47380
