16
energy: -21.780471772864 gnorm: 0.000034553632 xtb: 6.5.1 (9af7eec)
C          1.72540        0.32980       -0.58510
H          2.16240       -0.13450       -1.47170
O          2.00120        1.71350       -0.70280
C          0.22470        0.02680       -0.50220
H          0.08350       -0.91390        0.03330
H         -0.25690        0.81500        0.08320
C         -0.47350       -0.08560       -1.86210
H         -1.54780       -0.15250       -1.68180
H         -0.15660       -1.00210       -2.36350
H          1.78490        2.14240        0.13300
H          2.23600       -0.07280        0.29920
C         -0.19740        1.09180       -2.81260
H          0.81080        0.99410       -3.23610
H         -0.91610        1.05830       -3.63610
O         -0.34530        2.34940       -2.20680
H          0.44170        2.47920       -1.65550
