16
energy: -21.781376859914 gnorm: 0.000018883086 xtb: 6.5.1 (9af7eec)
C          1.48710       -0.11130       -0.37340
H          1.41060       -0.92650       -1.09630
O          2.41630        0.79410       -0.93030
C          0.10960        0.50890       -0.11460
H         -0.57910       -0.30350        0.12390
H          0.16600        1.16340        0.76010
C         -0.44220        1.32150       -1.29270
H          0.12780        2.24620       -1.40930
H         -1.47220        1.59640       -1.05980
H          2.50850        1.55020       -0.34020
H          1.87750       -0.52920        0.56530
C         -0.40450        0.57970       -2.63400
H         -0.58730       -0.49450       -2.47020
H         -1.19450        0.95740       -3.28960
O          0.79310        0.77680       -3.34160
H          1.53360        0.71910       -2.71900
