16
energy: -21.781376861399 gnorm: 0.000036450813 xtb: 6.5.1 (9af7eec)
C          1.53340       -0.09610        0.16420
H          1.16320       -1.10070        0.38800
O          2.79900       -0.28570       -0.41550
C          0.54800        0.62760       -0.76100
H          0.78260        0.33660       -1.78770
H         -0.46650        0.28820       -0.54580
C          0.57470        2.15550       -0.62850
H          0.14690        2.44710        0.33240
H         -0.05520        2.58150       -1.41500
H          3.05350        0.52800       -0.87630
H          1.61990        0.45120        1.11660
C          1.97780        2.76630       -0.71610
H          1.89230        3.86030       -0.77950
H          2.55650        2.52710        0.17880
O          2.74080        2.27130       -1.79590
H          2.26500        2.43700       -2.61730
