16
-21.78364394
C         -1.59910       -0.07140       -0.34820
H         -2.66580       -0.29230       -0.20340
O         -1.29650        1.18590        0.22150
C         -0.76510       -1.22400        0.21620
H         -0.81260       -1.19730        1.30970
H         -1.23210       -2.15530       -0.11070
C          0.70060       -1.23780       -0.22850
H          0.75350       -1.16900       -1.31660
H          1.13430       -2.19430        0.07010
H         -1.43720        1.13910        1.17420
H         -1.41350        0.04340       -1.41850
C          1.56790       -0.11960        0.36770
H          1.34480       -0.01570        1.44240
H          2.62160       -0.39570        0.26900
O          1.44370        1.11130       -0.28840
H          0.51130        1.38430       -0.24160
