16
-21.78021578
C         -1.90490        0.03440       -0.39510
H         -1.93540       -0.83380       -1.07040
O         -3.06730        0.08460        0.39590
C         -0.62300       -0.00750        0.43930
H         -0.61380        0.85270        1.11220
H         -0.62330       -0.91230        1.05410
C          0.62310        0.00820       -0.43920
H          0.62290        0.91240       -1.05470
H          0.61420       -0.85270       -1.11130
H         -3.08150       -0.68490        0.97600
H         -1.92990        0.94210       -1.00280
C          1.90500       -0.03250        0.39520
H          1.93670        0.83780        1.06770
H          1.92900       -0.93830        1.00580
O          3.06710       -0.08680       -0.39590
H          3.08210        0.68080       -0.97860
