16
-21.78006167
C         -1.18340        0.46800       -0.24760
H         -1.24760        0.38390       -1.33570
O         -2.49750        0.75370        0.17750
C         -0.65520       -0.84020        0.34730
H         -0.58450       -0.73860        1.43410
H         -1.38050       -1.62860        0.13200
C          0.70840       -1.24920       -0.20910
H          0.66830       -1.25560       -1.30200
H          0.93180       -2.26540        0.12190
H         -2.49540        0.85130        1.13590
H         -0.50860        1.29590        0.00200
C          1.86060       -0.34980        0.24710
H          1.82270       -0.20940        1.33000
H          2.81470       -0.83880       -0.00210
O          1.83190        0.94810       -0.29710
H          1.84020        0.88150       -1.25850
