16
-21.77991246
C         -1.46000        0.13310        0.55000
H         -0.91000        0.85970        1.16380
O         -2.62130        0.72640        0.01790
C         -0.54840       -0.43700       -0.53830
H         -1.13470       -1.13140       -1.14370
H         -0.21100        0.37720       -1.18630
C          0.67690       -1.15560        0.02660
H          1.11580       -1.77940       -0.75780
H          0.38270       -1.80960        0.84870
H         -2.35670        1.43450       -0.58010
H         -1.81680       -0.66930        1.20090
C          1.74830       -0.18230        0.52730
H          1.34530        0.46690        1.30650
H          2.58610       -0.75250        0.95540
O          2.21000        0.68550       -0.48040
H          2.56140        0.15610       -1.20540
