16
-21.77959726
C         -1.95970       -0.39490        0.15990
H         -2.60390       -0.48630        1.03780
O         -2.38540        0.77800       -0.48810
C         -0.49250       -0.34970        0.59810
H         -0.34120        0.56350        1.17840
H         -0.30420       -1.20770        1.24750
C          0.47250       -0.38860       -0.58850
H          0.36980        0.51820       -1.18920
H          0.23850       -1.24970       -1.21860
H         -1.84710        0.91010       -1.27610
H         -2.12440       -1.27250       -0.48310
C          1.93560       -0.50140       -0.14830
H          2.05340       -1.36960        0.51750
H          2.57330       -0.65030       -1.02300
O          2.42420        0.66330        0.46930
H          1.89440        0.84460        1.25330
