16
-21.77954384
C         -1.85940       -0.22340       -0.27170
H         -2.85230       -0.65650       -0.07500
O         -1.77310        1.05590        0.30800
C         -0.78650       -1.20450        0.20950
H         -0.76970       -1.20760        1.30380
H         -1.07590       -2.20390       -0.12150
C          0.61400       -0.89930       -0.32040
H          0.58610       -0.82910       -1.40950
H          1.27830       -1.72910       -0.05610
H         -1.82390        0.96800        1.26620
H         -1.76410       -0.06030       -1.34740
C          1.20110        0.39770        0.24100
H          0.59420        1.25180       -0.06220
H          1.21500        0.34950        1.34150
O          2.49450        0.65780       -0.25170
H          3.06300       -0.09290       -0.04540
