16
-21.77944813
C         -1.90210       -0.05360       -0.45690
H         -2.53050       -0.88210       -0.79260
O         -2.55830        0.47040        0.67110
C         -0.48920       -0.56600       -0.15820
H         -0.53980       -1.25480        0.68830
H         -0.14730       -1.12060       -1.03490
C          0.48940        0.56630        0.15780
H          0.14730        1.12110        1.03440
H          0.54000        1.25500       -0.68890
H         -2.05450        1.22140        1.00270
H         -1.85920        0.69620       -1.26080
C          1.90210        0.05400        0.45680
H          2.53050        0.88270        0.79180
H          1.85890       -0.69510        1.26130
O          2.55820       -0.47100       -0.67070
H          2.05470       -1.22280       -1.00140
