16
-21.77936453
C         -1.53920        0.44390        0.31840
H         -1.13140        1.39260       -0.05790
O         -2.91170        0.35190        0.01750
C         -0.74180       -0.73700       -0.24120
H         -1.24230       -1.65630        0.07170
H         -0.76100       -0.70060       -1.33430
C          0.70670       -0.77120        0.24010
H          1.16400       -1.71190       -0.07520
H          0.72750       -0.73850        1.33320
H         -3.01690        0.30860       -0.93950
H         -1.48430        0.45120        1.40970
C          1.55800        0.37280       -0.31670
H          1.50220        0.38630       -1.40790
H          1.19570        1.33830        0.06320
O          2.92500        0.21540       -0.01800
H          3.02950        0.16550        0.93870
