16
-21.78148035
C         -1.76540       -0.16970       -0.05080
H         -2.60180       -0.18150        0.66480
O         -1.36030        1.15320       -0.30430
C         -0.63840       -1.05930        0.48180
H         -0.32390       -0.68250        1.45820
H         -1.04490       -2.06090        0.62610
C          0.57640       -1.10450       -0.45770
H          0.28340       -0.73220       -1.44250
H          0.92490       -2.13070       -0.57940
H         -0.91230        1.48530        0.48490
H         -2.13020       -0.55330       -1.00760
C          1.75280       -0.26930        0.05580
H          2.09560       -0.65170        1.02110
H          2.58680       -0.34470       -0.65880
O          1.42420        1.08000        0.27950
H          0.99690        1.41990       -0.51780
