16
-21.77808360
C         -1.58440        0.46620       -0.32070
H         -2.24160        0.52630       -1.19150
O         -2.44450        0.25940        0.77290
C         -0.57560       -0.67130       -0.51560
H         -1.12360       -1.61440       -0.46450
H         -0.15080       -0.59270       -1.51880
C          0.54570       -0.68610        0.52920
H          1.05090       -1.65360        0.49690
H          0.12530       -0.56890        1.53060
H         -1.91450        0.16310        1.57180
H         -1.06180        1.42840       -0.21870
C          1.60420        0.40120        0.31260
H          1.12510        1.38380        0.19300
H          2.26460        0.44790        1.18180
O          2.45270        0.13570       -0.77740
H          1.91800        0.04950       -1.57440
