16
-21.77757717
C         -1.89350       -0.28380        0.05620
H         -2.62970       -0.30780        0.86330
O         -1.85690        1.05550       -0.37060
C         -0.55300       -0.81550        0.57170
H         -0.20110       -0.17640        1.38340
H         -0.73360       -1.81150        0.97870
C          0.53210       -0.87890       -0.51230
H          0.07910       -0.94810       -1.50440
H          1.13850       -1.77820       -0.37130
H         -1.22660        1.13030       -1.09510
H         -2.25370       -0.93280       -0.75750
C          1.46880        0.33370       -0.47010
H          2.15350        0.29760       -1.33200
H          0.90510        1.26810       -0.51500
O          2.19680        0.41040        0.73100
H          2.68370       -0.41240        0.85370
