16
-21.77737495
C         -1.17570        0.46630       -0.24370
H         -1.15820        0.45750       -1.34270
O         -2.46650        0.77850        0.22970
C         -0.67220       -0.87740        0.28600
H         -0.68530       -0.85380        1.37820
H         -1.36220       -1.66370       -0.03760
C          0.73060       -1.22670       -0.20670
H          0.76030       -1.17330       -1.29600
H          0.96520       -2.24910        0.09530
H         -3.07110        0.07760       -0.03860
H         -0.53250        1.27680        0.09800
C          1.82160       -0.30640        0.33720
H          1.65000       -0.11640        1.40640
H          2.79780       -0.80280        0.22930
O          1.82030        0.90530       -0.38840
H          2.49980        1.48700       -0.03330
