16
-21.77710317
C         -1.84180       -0.51100        0.14760
H         -1.68690       -0.95830        1.13240
O         -2.48120        0.71670        0.39500
C         -0.50070       -0.35360       -0.57470
H         -0.07200       -1.35220       -0.69060
H         -0.68470        0.04440       -1.57630
C          0.46110        0.56340        0.20070
H         -0.01290        0.87060        1.13360
H          0.67270        1.46600       -0.37450
H         -2.59800        1.18020       -0.44190
H         -2.49710       -1.17580       -0.43580
C          1.79180       -0.11470        0.52970
H          2.38390        0.52420        1.18870
H          1.60510       -1.06820        1.04710
O          2.59880       -0.32350       -0.60540
H          2.08980       -0.81740       -1.25800
