16
-21.77697307
C         -1.72300       -0.07910        0.60310
H         -1.23400        0.46920        1.42120
O         -2.23450        0.81690       -0.35200
C         -0.75950       -1.11530        0.01370
H         -0.50710       -1.83140        0.79780
H         -1.28240       -1.65130       -0.78060
C          0.52360       -0.52030       -0.56680
H          0.29490        0.22380       -1.33270
H          1.09410       -1.31200       -1.05550
H         -1.49540        1.26870       -0.77450
H         -2.59690       -0.59060        1.01430
C          1.43330        0.11890        0.47920
H          0.94700        0.99110        0.93920
H          1.65110       -0.61090        1.27300
O          2.62300        0.51610       -0.16990
H          3.22460        0.90040        0.47540
