16
-21.77667669
C         -1.56510        0.51690        0.35900
H         -1.05150        1.46490        0.13480
O         -2.47410        0.19950       -0.66570
C         -0.53370       -0.58920        0.60320
H         -0.03260       -0.38630        1.55270
H         -1.07180       -1.53130        0.71800
C          0.50090       -0.70370       -0.53140
H          0.29240        0.03650       -1.30880
H          0.45720       -1.69130       -0.99160
H         -1.97840       -0.00760       -1.46620
H         -2.17850        0.66020        1.25190
C          1.93420       -0.46650       -0.04620
H          2.15890       -1.14580        0.78970
H          2.63970       -0.67110       -0.85480
O          2.17340        0.86870        0.32510
H          1.53170        1.12150        0.99890
