16
-21.77526552
C         -1.89540       -0.28870       -0.07570
H         -2.25240       -1.07140        0.61110
O         -1.83640        0.94940        0.59280
C         -0.56970       -0.73200       -0.70270
H         -0.76030       -1.66560       -1.23320
H         -0.24410        0.00790       -1.43390
C          0.55220       -0.93780        0.32240
H          1.20520       -1.74490       -0.01140
H          0.13660       -1.22070        1.29280
H         -1.23670        0.86180        1.34140
H         -2.64370       -0.15590       -0.86080
C          1.43040        0.30270        0.48610
H          0.81350        1.19890        0.63760
H          2.08380        0.17850        1.36400
O          2.20940        0.44230       -0.68360
H          2.72660        1.25150       -0.62650
