16
-21.78137685
C         -1.57410       -0.13790        0.34230
H         -1.38310       -0.34840        1.40690
O         -1.41810        1.23190        0.07180
C         -0.68330       -1.03070       -0.52970
H         -1.18070       -1.98780       -0.69440
H         -0.57550       -0.54320       -1.50150
C          0.69870       -1.31230        0.07330
H          1.30010       -1.83980       -0.67280
H          0.59340       -1.96950        0.93830
H         -0.47340        1.42090       -0.03410
H         -2.62720       -0.35520        0.14190
C          1.44810       -0.05680        0.53290
H          0.97710        0.36630        1.42300
H          2.48070       -0.32770        0.79480
O          1.44180        0.98350       -0.42160
H          1.83000        0.65820       -1.24130
