16
-21.78096331
C         -1.88490        0.10790       -0.46800
H         -1.91590       -0.75560       -1.13680
O         -2.50280       -0.32280        0.72180
C         -0.44160        0.56630       -0.25860
H         -0.04330        0.93410       -1.20530
H         -0.42620        1.39650        0.45350
C          0.44250       -0.56300        0.26660
H          0.42220       -1.39540       -0.44260
H          0.04830       -0.92710        1.21640
H         -2.46710        0.39620        1.36280
H         -2.46580        0.92190       -0.92690
C          1.88760       -0.10620        0.46700
H          1.92360        0.76000        1.13200
H          2.46960       -0.91940        0.92610
O          2.49980        0.31850       -0.72790
H          2.45900       -0.40300       -1.36590
