16
-21.78086311
C         -1.37070        0.20120       -0.56210
H         -2.23090        0.00480       -1.21850
O         -1.78460        0.89230        0.59620
C         -0.66740       -1.12080       -0.23930
H         -1.37760       -1.78490        0.26350
H         -0.36830       -1.59420       -1.17520
C          0.55330       -0.93050        0.66370
H          0.85400       -1.89830        1.06980
H          0.27410       -0.28420        1.50100
H         -2.40430        0.33560        1.08100
H         -0.68660        0.87500       -1.07920
C          1.76460       -0.32580       -0.04870
H          2.63320       -0.38130        0.62700
H          1.99810       -0.89670       -0.95130
O          1.57980        1.00000       -0.47990
H          1.22340        1.51360        0.25490
