16
-21.78053367
C         -2.04010       -0.42300        0.31610
H         -2.02620       -0.32390        1.40370
O         -2.40270        0.84740       -0.16900
C         -0.67040       -0.88340       -0.18860
H         -0.48610       -1.89850        0.16590
H         -0.68170       -0.90760       -1.28280
C          0.44080        0.04780        0.28800
H          0.52710       -0.01140        1.37470
H          0.17680        1.07750        0.02990
H         -2.41180        0.81790       -1.13250
H         -2.80240       -1.16820        0.04450
C          1.79130       -0.30400       -0.33530
H          2.06220       -1.33460       -0.09300
H          1.73150       -0.21270       -1.43120
O          2.84310        0.48610        0.16450
H          2.61910        1.41490        0.03680
