16
-21.78034818
C         -1.55590        0.44460        0.44680
H         -1.07640        1.42050        0.35440
O         -2.35130        0.30920       -0.70830
C         -0.50520       -0.65980        0.57580
H          0.04600       -0.51590        1.50640
H         -1.01620       -1.62570        0.62770
C          0.47480       -0.66160       -0.59960
H         -0.06820       -0.45940       -1.52410
H          0.94060       -1.64770       -0.68610
H         -2.77580       -0.55600       -0.68900
H         -2.18780        0.45470        1.34720
C          1.57540        0.38760       -0.43210
H          2.20830        0.40010       -1.33180
H          1.14160        1.38090       -0.30530
O          2.36210        0.17490        0.71730
H          2.74620       -0.70770        0.66740
