16
-21.78034299
C         -1.61470       -0.18020       -0.30400
H         -2.65000       -0.36570        0.01550
O         -1.28950        1.18130       -0.08460
C         -0.66600       -1.05450        0.51380
H         -0.53130       -0.57990        1.48740
H         -1.13810       -2.02500        0.67520
C          0.70020       -1.28100       -0.13950
H          0.58300       -1.88110       -1.04440
H          1.31860       -1.84240        0.56300
H         -1.85880        1.73880       -0.62330
H         -1.53370       -0.42850       -1.37140
C          1.43190        0.01580       -0.51800
H          2.46210       -0.22330       -0.79630
H          0.94240        0.47390       -1.38890
O          1.51390        0.93930        0.53370
H          0.61500        1.26260        0.68900
