20
-19.99383787
C          3.18230        0.22200       -0.00010
C          1.86840       -0.54970       -0.00030
C          0.66000        0.38360        0.00040
C         -0.66010       -0.38310        0.00040
C         -1.86860        0.54990       -0.00030
C         -3.18210       -0.22260       -0.00010
H          3.25330        0.85390        0.88270
H          3.25140        0.85730       -0.88060
H          4.02890       -0.46090       -0.00240
H          1.82630       -1.19430        0.88080
H          1.82580       -1.19330       -0.88210
H          0.70280        1.02850       -0.88080
H          0.70330        1.02780        0.88210
H         -0.70320       -1.02730        0.88210
H         -0.70290       -1.02800       -0.88080
H         -1.82650        1.19350       -0.88210
H         -1.82670        1.19450        0.88080
H         -4.02900        0.45980       -0.00080
H         -3.25200       -0.85560        0.88200
H         -3.25160       -0.85680       -0.88140
