20
-19.98916498
C          1.88820        1.13440        0.16980
C          1.69490       -0.31620       -0.26000
C          0.54190       -1.02230        0.46830
C         -0.75430       -1.11040       -0.34110
C         -1.42130        0.22720       -0.66240
C         -1.94490        0.94820        0.57410
H          2.10820        1.18740        1.23440
H          0.99960        1.72800       -0.02490
H          2.72070        1.58040       -0.37110
H          2.62550       -0.85340       -0.06250
H          1.52270       -0.35670       -1.33760
H          0.35070       -0.52220        1.41850
H          0.84450       -2.04600        0.70200
H         -1.46570       -1.72740        0.21470
H         -0.53990       -1.62670       -1.28070
H         -2.26030        0.03520       -1.33650
H         -0.71950        0.87010       -1.19550
H         -2.64040        0.31200        1.11780
H         -2.46650        1.85920        0.28820
H         -1.13350        1.21910        1.24430
