20
-19.98888810
C          2.71300        0.11730        0.64120
C          1.90720       -0.51420       -0.48820
C          0.57070        0.18500       -0.74040
C         -0.43800       -0.00720        0.39110
C         -1.80220        0.63000        0.07340
C         -2.93530       -0.39000        0.07680
H          2.87680        1.17490        0.44550
H          3.68230       -0.36850        0.73090
H          2.19710        0.01910        1.59270
H          1.72530       -1.56690       -0.25950
H          2.49930       -0.47410       -1.40590
H          0.13900       -0.21210       -1.66280
H          0.74750        1.25290       -0.89020
H         -0.03660        0.42230        1.30930
H         -0.56840       -1.07780        0.56290
H         -1.76150        1.10660       -0.90830
H         -2.02830        1.41170        0.80090
H         -3.88270        0.08930       -0.16090
H         -3.02520       -0.85850        1.05470
H         -2.75020       -1.16730       -0.66150
