20
-19.99211175
C          2.50760        0.26530        0.75880
C          1.90990       -0.41450       -0.46770
C          0.40270       -0.64460       -0.35210
C         -0.40230        0.65390       -0.33410
C         -1.90940        0.42700       -0.45760
C         -2.50850       -0.28570        0.74930
H          2.27560       -0.30120        1.65830
H          2.11700        1.27270        0.87540
H          3.58940        0.33070        0.66510
H          2.39970       -1.38140       -0.60810
H          2.11620        0.19070       -1.35380
H          0.20250       -1.21620        0.55580
H          0.07600       -1.24690       -1.20400
H         -0.07470        1.28000       -1.16830
H         -0.20290        1.19950        0.58980
H         -2.11460       -0.15390       -1.36000
H         -2.39900        1.39740       -0.57240
H         -3.59000       -0.35020        0.65160
H         -2.27920        0.25730        1.66390
H         -2.11650       -1.29520        0.84020
