20
-19.99115414
C          2.35910        0.50400        0.46550
C          1.41190       -0.68490        0.35460
C          0.47450       -0.59940       -0.85090
C         -0.47440        0.60130       -0.84940
C         -1.41180        0.68400        0.35620
C         -2.35920       -0.50500        0.46430
H          3.06910        0.34660        1.27470
H          1.81320        1.42150        0.66940
H          2.91730        0.63320       -0.45950
H          0.82840       -0.77170        1.27260
H          2.00340       -1.59920        0.25920
H         -0.11120       -1.51930       -0.90360
H          1.08040       -0.54960       -1.75970
H         -1.08030        0.55360       -1.75830
H          0.11130        1.52130       -0.90010
H         -2.00330        1.59870        0.26310
H         -0.82830        0.76850        1.27450
H         -2.91750       -0.63190       -0.46100
H         -3.06920       -0.34950        1.27390
H         -1.81350       -1.42300        0.66590
