20
-19.99114531
C          2.38690        0.49700       -0.44470
C          1.42020       -0.67850       -0.36140
C          0.47290       -0.59660        0.83660
C         -0.47380        0.60570        0.83250
C         -1.42350        0.67740       -0.36420
C         -2.38290       -0.50450       -0.44220
H          3.10100        0.34220       -1.25070
H          2.93950        0.60150        0.48690
H          1.85740        1.42650       -0.63710
H          1.99700       -1.60300       -0.27460
H          0.84450       -0.74210       -1.28620
H          1.07190       -0.55210        1.75030
H         -0.11510       -1.51540        0.88080
H          0.11390        1.52510        0.86780
H         -1.07090        0.56850        1.74770
H         -0.84990        0.74170       -1.29030
H         -2.00600        1.59860       -0.27960
H         -3.10270       -0.35440       -1.24410
H         -2.92940       -0.61280        0.49250
H         -1.84830       -1.43030       -0.63780
