20
-19.98945771
C          2.91360        0.54020        0.20240
C          1.76510       -0.28500       -0.36510
C          0.47330       -0.08000        0.42470
C         -0.70150       -0.89030       -0.14830
C         -1.85190       -0.01600       -0.64940
C         -2.61920        0.64730        0.48830
H          2.67350        1.60100        0.17130
H          3.82360        0.37770       -0.37070
H          3.10610        0.26420        1.23720
H          2.03630       -1.34330       -0.34600
H          1.59750       -0.00340       -1.40740
H          0.22820        0.98370        0.41230
H          0.65100       -0.35790        1.46530
H         -1.08970       -1.57560        0.60760
H         -0.34130       -1.49980       -0.97990
H         -2.54300       -0.63570       -1.22600
H         -1.45670        0.74940       -1.32140
H         -3.42420        1.26510        0.09630
H         -1.96440        1.27780        1.08490
H         -3.05280       -0.10690        1.14180
