20
-19.98933191
C          2.07840        0.98620        0.01940
C          1.89530       -0.52350        0.11500
C          0.45440       -0.94720        0.40670
C         -0.53100       -0.60620       -0.72080
C         -1.38690        0.63240       -0.44460
C         -2.48200        0.36650        0.58200
H          3.12890        1.23000       -0.12530
H          1.73880        1.46980        0.93320
H          1.51820        1.39370       -0.81800
H          2.53640       -0.90640        0.91340
H          2.22340       -0.98680       -0.81880
H          0.13030       -0.47540        1.33570
H          0.45140       -2.02660        0.57400
H         -1.20360       -1.45080       -0.88650
H          0.02780       -0.45640       -1.64700
H         -1.85450        0.95330       -1.37900
H         -0.75400        1.44880       -0.09450
H         -3.15220       -0.41470        0.22910
H         -3.06710        1.26700        0.75620
H         -2.05900        0.04710        1.53140
