29
-42.53874713
N          0.70490       -0.09760        0.41130
H          0.74730       -0.69630        1.22160
C         -0.40740        0.82790        0.36150
H         -0.41150        1.26550       -0.64300
C         -1.74140        0.12010        0.61990
H         -2.51700        0.88530        0.68980
H         -1.69840       -0.38790        1.58490
C         -2.11790       -0.86580       -0.47570
H         -1.92870       -0.44300       -1.46130
H         -3.17160       -1.13370       -0.39230
S         -1.16570       -2.43360       -0.38340
C         -0.73050       -2.63740       -2.13380
H         -0.15670       -3.55550       -2.20890
H         -0.12900       -1.79350       -2.46040
H         -1.63850       -2.72080       -2.72470
C         -0.19610        1.92770        1.41460
O         -0.84610        1.96940        2.44090
N          0.76080        2.84110        1.16690
H          0.86400        3.52920        1.90240
C          1.47320       -0.38610       -0.66140
O          1.39310        0.23440       -1.70590
C          2.44180       -1.52000       -0.42750
H          3.05240       -1.66460       -1.31390
H          1.88730       -2.43210       -0.21560
H          3.08300       -1.29570        0.42160
C          1.64660        3.00260        0.04010
H          2.68570        2.92920        0.36960
H          1.47450        2.24260       -0.71570
H          1.49640        3.98540       -0.41250
