29
-42.53842880
N          1.09950       -0.15660        0.41140
H          0.89160       -0.30920        1.38980
C          0.39980        0.94860       -0.19290
H          1.09750        1.45640       -0.87080
C         -0.81080        0.47220       -1.02400
H         -0.42470       -0.15240       -1.83140
H         -1.29650        1.33960       -1.47570
C         -1.85520       -0.29210       -0.22140
H         -2.76560       -0.40910       -0.81220
H         -2.09800        0.22810        0.70500
S         -1.36350       -1.96570        0.31570
C         -1.11670       -2.77610       -1.29040
H         -1.97630       -2.58370       -1.92610
H         -1.03650       -3.83900       -1.08800
H         -0.20020       -2.42200       -1.75370
C         -0.03740        1.87830        0.93580
O         -0.08570        1.49230        2.08860
N         -0.38140        3.14180        0.61930
H         -0.69970        3.68710        1.40980
C          1.83270       -1.03190       -0.30510
O          2.00850       -0.90760       -1.50270
C          2.39680       -2.16440        0.52060
H          3.03380       -2.78660       -0.10110
H          1.57640       -2.76250        0.91290
H          2.97130       -1.77150        1.35550
C         -0.39200        3.81220       -0.65610
H         -0.05740        4.84120       -0.52290
H          0.27890        3.32030       -1.35580
H         -1.39830        3.83040       -1.08580
