29
-42.53840723
N          1.00620       -0.19500       -0.04250
H          0.64390       -0.70700        0.75100
C          0.02760        0.51190       -0.83570
H          0.58530        0.99430       -1.64780
C         -1.04600       -0.41770       -1.44610
H         -0.84170       -0.55710       -2.50940
H         -2.00850        0.08900       -1.35080
C         -1.13720       -1.80600       -0.82710
H         -0.20760       -2.35850       -0.96630
H         -1.94740       -2.36410       -1.29830
S         -1.43740       -1.85100        0.97620
C         -3.08250       -1.09980        1.06890
H         -3.75270       -1.63420        0.40110
H         -3.01450       -0.04790        0.80700
H         -3.41310       -1.20990        2.09650
C         -0.63120        1.61920        0.00320
O         -1.83570        1.69010        0.16940
N          0.18630        2.53690        0.54630
H         -0.29040        3.22000        1.12010
C          2.28320       -0.38060       -0.44670
O          2.74410        0.16390       -1.42960
C          3.07560       -1.28900        0.46610
H          4.09900       -1.35580        0.10930
H          2.63200       -2.28220        0.47720
H          3.06990       -0.89800        1.48080
C          1.61740        2.68000        0.44240
H          1.86780        3.74040        0.45050
H          2.12470        2.19660        1.28230
H          1.98970        2.24570       -0.48230
