29
-42.53838706
N          0.71350       -0.10700        0.37390
H          0.59400       -0.69270        1.18600
C         -0.27890        0.93000        0.18450
H         -0.13610        1.32470       -0.82600
C         -1.69780        0.37020        0.32710
H         -2.40150        1.18860        0.16220
H         -1.84080        0.01450        1.34930
C         -1.98680       -0.74520       -0.66630
H         -1.53520       -0.52950       -1.63610
H         -3.06260       -0.88010       -0.78750
S         -1.31880       -2.35600       -0.10470
C         -1.57620       -3.29660       -1.63200
H         -0.98170       -2.85790       -2.42930
H         -2.63180       -3.28870       -1.89000
H         -1.24890       -4.31260       -1.43840
C         -0.04330        2.02650        1.23520
O         -0.64570        2.04370        2.29110
N          0.90190        2.94330        0.95860
H          1.00840        3.64880        1.67610
C          1.59860       -0.46550       -0.58140
O          1.74060        0.17030       -1.60930
C          2.39390       -1.70080       -0.23550
H          1.71630       -2.54420       -0.11720
H          2.93010       -1.55140        0.69860
H          3.10280       -1.91130       -1.03070
C          1.67110        3.14610       -0.24700
H          1.81850        2.21340       -0.78690
H          1.17710        3.86330       -0.90990
H          2.64910        3.54260        0.02250
