29
-42.53832486
N          1.70330       -0.62510        0.31220
H          1.61530       -1.19400        1.13990
C          0.49820        0.04550       -0.13520
H          0.70490        0.44480       -1.12970
C         -0.66870       -0.94380       -0.18300
H         -0.89630       -1.24820        0.84100
H         -0.38000       -1.82410       -0.76010
C         -1.89640       -0.30200       -0.80950
H         -1.69920       -0.01090       -1.84130
H         -2.21470        0.57370       -0.24260
S         -3.31220       -1.44450       -0.90010
C         -3.80130       -1.47920        0.84700
H         -4.75200       -1.99970        0.89300
H         -3.91370       -0.46110        1.20790
H         -3.06000       -2.01300        1.43400
C          0.17380        1.16670        0.86660
O         -0.32510        0.91390        1.94850
N          0.49470        2.42330        0.51980
H          0.26020        3.11850        1.21560
C          2.92860       -0.34980       -0.18920
O          3.10110        0.43880       -1.09730
C          4.04460       -1.12680        0.47150
H          4.12560       -0.83970        1.51780
H          4.98090       -0.90730       -0.03260
H          3.84470       -2.19430        0.41550
C          1.09990        2.90010       -0.70440
H          1.92330        2.25310       -1.01050
H          0.36450        2.95340       -1.51240
H          1.49410        3.89830       -0.53020
