29
-42.53826340
N          0.89060       -0.19620        0.55320
H          0.95000       -0.42420        1.53480
C          0.04760        0.92530        0.22720
H          0.35140        1.27670       -0.76370
C         -1.44220        0.53010        0.21040
H         -2.04310        1.42390        0.02820
H         -1.71460        0.13620        1.19200
C         -1.75230       -0.50770       -0.86270
H         -1.14160       -0.34120       -1.74890
H         -2.80900       -0.47360       -1.13200
S         -1.39870       -2.21290       -0.28900
C         -0.87570       -2.94700       -1.86260
H         -0.00970       -2.40620       -2.23500
H         -1.69710       -2.90670       -2.57270
H         -0.61460       -3.97960       -1.65590
C          0.25870        1.99370        1.30010
O          0.55020        1.69250        2.44070
N          0.06840        3.27740        0.93700
H          0.23850        3.94860        1.67300
C          1.56110       -0.90610       -0.37560
O          1.51250       -0.64210       -1.56280
C          2.35270       -2.05850        0.19710
H          1.66230       -2.80090        0.59250
H          2.99630       -1.71400        1.00240
H          2.95540       -2.51060       -0.58520
C         -0.15440        3.79590       -0.39200
H         -0.35240        4.86260       -0.32160
H          0.71990        3.64670       -1.03180
H         -1.01500        3.31700       -0.86000
