29
-42.53820275
N          1.05640       -0.13610        0.39350
H          0.83240       -0.34760        1.35640
C          0.31060        0.95340       -0.18490
H          0.96550        1.46610       -0.89800
C         -0.93490        0.45160       -0.95030
H         -0.58260       -0.12640       -1.80630
H         -1.48810        1.31340       -1.33180
C         -1.89080       -0.38300       -0.10830
H         -2.84130       -0.50010       -0.63190
H         -2.07300        0.08540        0.85870
S         -1.31330       -2.06420        0.30590
C         -1.12000       -2.77860       -1.35240
H         -2.00910       -2.56870       -1.94020
H         -1.01210       -3.84930       -1.21410
H         -0.23000       -2.38060       -1.83170
C         -0.10360        1.88320        0.95080
O         -0.26560        1.47100        2.08340
N         -0.32620        3.17610        0.63980
H         -0.56840        3.75410        1.43270
C          1.81490       -0.96620       -0.35280
O          1.98780       -0.79430       -1.54430
C          2.41560       -2.10670        0.43500
H          3.08310       -2.67830       -0.20300
H          1.61550       -2.75190        0.79340
H          2.96500       -1.72500        1.29170
C         -0.02980        3.85650       -0.59870
H         -0.47330        3.33640       -1.44720
H         -0.44930        4.85870       -0.55420
H          1.04850        3.93810       -0.76390
