29
-42.53811736
N          1.36510       -0.38050        0.61170
H          1.45040       -0.49390        1.61360
C          0.46800        0.67660        0.20860
H          0.81700        1.05300       -0.75780
C         -0.97350        0.14880        0.08320
H         -1.67290        0.98140       -0.01050
H         -1.21790       -0.38980        1.00140
C         -1.11670       -0.76750       -1.12190
H         -0.43230       -1.61280       -1.06660
H         -0.92280       -0.22300       -2.04520
S         -2.80920       -1.42150       -1.28650
C         -2.75930       -2.73820       -0.03820
H         -2.63640       -2.31090        0.95270
H         -1.94530       -3.41980       -0.26860
H         -3.70860       -3.25950       -0.09800
C          0.50760        1.75510        1.29080
O          0.79270        1.47740        2.44080
N          0.17760        3.00640        0.92430
H          0.23150        3.68940        1.66700
C          2.27900       -0.91970       -0.22840
O          2.30420       -0.66350       -1.41410
C          3.22670       -1.88570        0.44850
H          2.66830       -2.65550        0.97580
H          3.84420       -1.35030        1.16660
H          3.86540       -2.34710       -0.29880
C         -0.05580        3.49820       -0.41340
H          0.85240        3.44880       -1.02050
H         -0.83870        2.92570       -0.91110
H         -0.37480        4.53560       -0.35250
