29
-42.53810790
N          1.79500       -0.85960        0.29210
H          2.01740       -1.44380        1.08360
C          0.41570       -0.42490        0.19110
H          0.28380        0.00120       -0.80420
C         -0.52790       -1.61340        0.38550
H         -0.34200       -2.05020        1.37030
H         -0.32200       -2.36170       -0.38180
C         -1.98630       -1.19170        0.32580
H         -2.20870       -0.47270        1.11570
H         -2.63760       -2.06050        0.43310
S         -2.40180       -0.39800       -1.27070
C         -4.15060       -0.05650       -0.93270
H         -4.67850       -0.99100       -0.76240
H         -4.55060        0.44180       -1.80920
H         -4.23170        0.59210       -0.06440
C          0.16460        0.62070        1.28890
O          0.14110        0.29970        2.46490
N         -0.00100        1.89360        0.90130
H         -0.13590        2.54910        1.65870
C          2.79580       -0.25870       -0.39310
O          2.59730        0.60260       -1.22540
C          4.17030       -0.78550       -0.04240
H          4.19870       -1.86720       -0.14850
H          4.41050       -0.52740        0.98710
H          4.90590       -0.33650       -0.70300
C          0.04980        2.43100       -0.44220
H         -0.81420        2.10350       -1.02570
H          0.03980        3.51600       -0.38120
H          0.96330        2.11630       -0.95060
