29
-42.53803845
N          1.56520       -0.24570        0.49450
H          1.59080       -0.28380        1.50630
C          0.73060        0.80390       -0.04120
H          1.30600        1.34980       -0.80000
C         -0.52430        0.21410       -0.71490
H         -0.17330       -0.45050       -1.50650
H         -1.11570        1.00650       -1.17320
C         -1.39060       -0.55630        0.26880
H         -1.78190        0.09920        1.04660
H         -0.83820       -1.37040        0.73740
S         -2.85410       -1.27680       -0.54390
C         -2.08580       -2.70900       -1.35090
H         -1.65150       -3.35740       -0.59480
H         -1.32810       -2.37960       -2.05530
H         -2.87770       -3.23090       -1.87730
C          0.36890        1.71640        1.12840
O          0.55250        1.35850        2.27870
N         -0.15510        2.92350        0.85640
H         -0.41460        3.45250        1.67870
C          2.30610       -1.06390       -0.28180
O          2.29300       -0.99930       -1.49430
C          3.13440       -2.05830        0.50320
H          2.49080       -2.67040        1.13100
H          3.83990       -1.52990        1.14030
H          3.67970       -2.69610       -0.18610
C         -0.45180        3.53830       -0.41310
H         -0.25920        4.60880       -0.34330
H          0.17850        3.12480       -1.19650
H         -1.50050        3.39340       -0.68860
