29
-42.53767413
N          0.95750       -0.23940        0.01540
H          0.48980       -0.90310        0.62450
C          0.08530        0.47100       -0.89910
H          0.74050        0.94370       -1.64250
C         -0.83290       -0.50340       -1.65880
H         -0.18970       -1.27250       -2.09440
H         -1.30360        0.04700       -2.47710
C         -1.95730       -1.16970       -0.87290
H         -2.47190       -1.87680       -1.52440
H         -2.66170       -0.42550       -0.51270
S         -1.41940       -2.12240        0.59990
C         -2.27520       -1.19060        1.90500
H         -3.33500       -1.42750        1.87530
H         -2.11870       -0.12820        1.74630
H         -1.85170       -1.50400        2.85380
C         -0.66390        1.57950       -0.15030
O         -1.86570        1.55990        0.05570
N          0.07200        2.61210        0.29710
H         -0.46990        3.29950        0.80630
C          2.28680       -0.36090       -0.20030
O          2.87770        0.29030       -1.04030
C          2.96000       -1.33860        0.73460
H          4.02910       -1.34230        0.54470
H          2.56030       -2.33730        0.57280
H          2.77540       -1.05500        1.76800
C          1.48820        2.87330        0.22230
H          1.97730        2.22360       -0.49780
H          1.64740        3.90960       -0.07800
H          1.95700        2.71810        1.19780
