29
-42.53766354
N          1.19430       -0.43870        0.31950
H          1.03280       -0.97690        1.15720
C          0.21090        0.58620        0.02440
H          0.45060        0.97910       -0.96480
C         -1.20280        0.00110        0.04180
H         -1.91490        0.80060       -0.17140
H         -1.40810       -0.36830        1.04870
C         -1.36560       -1.10700       -0.98610
H         -0.72200       -1.95950       -0.76760
H         -1.13580       -0.73980       -1.98610
S         -3.08050       -1.71410       -1.09330
C         -3.20130       -2.61580        0.47780
H         -2.39430       -3.34050        0.54080
H         -4.15780       -3.12720        0.46660
H         -3.16610       -1.92170        1.31200
C          0.32240        1.66780        1.11130
O         -0.08660        1.46170        2.23920
N          0.92470        2.82100        0.78040
H          0.96770        3.49720        1.53060
C          2.40590       -0.47750       -0.28140
O          2.71320        0.27990       -1.18010
C          3.31580       -1.56120        0.25140
H          3.57350       -1.34920        1.28720
H          4.22420       -1.59090       -0.34280
H          2.82080       -2.52840        0.20480
C          1.50270        3.20790       -0.48800
H          2.10140        2.39750       -0.90690
H          0.72720        3.49010       -1.20560
H          2.15110        4.06540       -0.32610
