29
-42.53749007
N          1.55850       -0.40070        0.50490
H          1.75690       -0.62450        1.47050
C          0.48020        0.53750        0.30980
H          0.64300        1.01390       -0.66190
C         -0.88230       -0.17990        0.32850
H         -1.68220        0.56280        0.30700
H         -0.97170       -0.74310        1.25980
C         -1.01370       -1.12780       -0.85340
H         -0.23640       -1.88940       -0.82090
H         -0.94210       -0.59750       -1.80320
S         -2.58690       -2.04500       -0.83440
C         -3.71860       -0.74710       -1.41180
H         -3.35530       -0.34560       -2.35360
H         -3.80600        0.03640       -0.66440
H         -4.68320       -1.22070       -1.55850
C          0.52300        1.54830        1.45600
O          0.96930        1.24330        2.54500
N          0.01100        2.77100        1.21850
H          0.08090        3.41200        1.99650
C          2.44220       -0.69910       -0.47580
O          2.30650       -0.30250       -1.61490
C          3.57690       -1.58790       -0.01850
H          4.16980       -1.07150        0.73320
H          4.20750       -1.83300       -0.86780
H          3.18290       -2.50320        0.41690
C         -0.42290        3.31230       -0.04790
H          0.41050        3.40580       -0.74980
H         -1.18970        2.68300       -0.50060
H         -0.84540        4.29960        0.12090
