29
-42.53621427
N          1.69650       -0.60580        0.39780
H          1.99880       -1.15250        1.18900
C          0.27530       -0.32750        0.31390
H          0.09610        0.09100       -0.67830
C         -0.51550       -1.62540        0.49600
H         -0.32800       -2.00130        1.50550
H         -0.16080       -2.36000       -0.22930
C         -2.01840       -1.44460        0.34040
H         -2.39130       -0.65820        0.99410
H         -2.52190       -2.37810        0.59150
S         -2.56090       -1.07290       -1.36410
C         -2.62220        0.74510       -1.36820
H         -3.36420        1.02790       -2.10840
H         -1.65680        1.15790       -1.64440
H         -2.92650        1.09440       -0.38670
C         -0.09130        0.66930        1.42590
O         -0.45500        0.28640        2.52330
N          0.03860        1.98240        1.16720
H         -0.22140        2.57380        1.94670
C          2.59810       -0.17780       -0.51320
O          2.28800        0.52170       -1.45720
C          4.00980       -0.64410       -0.24070
H          4.05430       -1.73060       -0.26490
H          4.33520       -0.30200        0.73930
H          4.67230       -0.24170       -1.00110
C          0.45760        2.67460       -0.02880
H          1.02290        2.02080       -0.68980
H         -0.40670        3.07320       -0.56810
H          1.10090        3.50870        0.25150
