29
-42.54063297
N          1.70710       -0.25990        0.57850
H          2.11030       -0.18660        1.50240
C          0.32670        0.16660        0.47740
H          0.17090        0.57990       -0.52220
C         -0.60910       -1.03930        0.69320
H         -0.58350       -1.31850        1.75010
H         -0.20880       -1.87320        0.11330
C         -2.05050       -0.78560        0.28810
H         -2.49830        0.00770        0.88640
H         -2.64000       -1.69540        0.41220
S         -2.25500       -0.23530       -1.44350
C         -1.39350       -1.55410       -2.34260
H         -1.76670       -2.51660       -2.00390
H         -0.31980       -1.46700       -2.19710
H         -1.63620       -1.41070       -3.39040
C          0.11730        1.19430        1.58740
O          0.57940        0.99090        2.69730
N         -0.59420        2.30160        1.32080
H         -0.65710        2.94150        2.10150
C          2.34890       -0.89160       -0.42580
O          1.82840       -1.09840       -1.50460
C          3.76570       -1.29750       -0.08480
H          4.33300       -0.43290        0.25110
H          4.23940       -1.72380       -0.96410
H          3.75560       -2.03870        0.71160
C         -1.05480        2.79390        0.04210
H         -0.22120        3.15300       -0.56790
H         -1.58670        2.02030       -0.51070
H         -1.73820        3.62120        0.21630
