29
-42.53600885
N          1.57190       -0.38390        0.46560
H          1.92990       -0.79700        1.31280
C          0.16500       -0.03990        0.46170
H         -0.06660        0.33640       -0.54260
C         -0.71010       -1.26700        0.74750
H         -1.54880       -0.95700        1.37300
H         -0.13840       -2.00150        1.32090
C         -1.21250       -1.91980       -0.53040
H         -1.79080       -2.81820       -0.31150
H         -0.38300       -2.17860       -1.18830
S         -2.26260       -0.81240       -1.52870
C         -3.69580       -0.64660       -0.42660
H         -4.05110       -1.63400       -0.14620
H         -4.45940       -0.12440       -0.99290
H         -3.42830       -0.06660        0.45180
C         -0.10770        1.07000        1.48900
O         -0.78930        0.88420        2.47990
N          0.44390        2.27250        1.24940
H          0.25760        2.95730        1.97100
C          2.36470       -0.31960       -0.63040
O          1.98790        0.14880       -1.68340
C          3.75890       -0.86180       -0.40040
H          3.71160       -1.92630       -0.18000
H          4.23030       -0.35170        0.43660
H          4.35290       -0.71050       -1.29660
C          1.27120        2.72000        0.15640
H          0.96070        3.72180       -0.14090
H          2.32290        2.75720        0.45560
H          1.18200        2.06180       -0.70360
