29
-42.53589388
N          1.57790       -0.42660        0.41810
H          1.39620       -0.60810        1.39680
C          0.78600        0.63670       -0.15270
H          1.43150        1.18510       -0.84870
C         -0.41920        0.07530       -0.93310
H         -0.04010       -0.55140       -1.74210
H         -0.98570        0.89400       -1.37770
C         -1.33660       -0.74560       -0.04110
H         -1.66190       -0.17070        0.82770
H         -0.84200       -1.65810        0.29340
S         -2.83210       -1.23190       -0.97300
C         -3.63030       -2.22950        0.31460
H         -4.57390       -2.57560       -0.09300
H         -3.80590       -1.61450        1.19310
H         -2.99760       -3.07780        0.56140
C          0.31820        1.52650        0.99690
O          0.33210        1.12100        2.14640
N         -0.12040        2.76300        0.70570
H         -0.45800        3.27970        1.50740
C          2.68410       -0.90640       -0.19650
O          3.00670       -0.56080       -1.31350
C          3.44520       -1.91900        0.63090
H          4.28910       -2.29070        0.05760
H          2.79480       -2.74880        0.89720
H          3.80720       -1.45270        1.54460
C         -0.23180        3.42650       -0.56910
H          0.46800        3.00330       -1.28540
H         -1.24470        3.34020       -0.97310
H         -0.00040        4.48390       -0.44190
