29
-42.53587934
N          1.23430       -0.41090        0.32900
H          1.20860       -0.94850        1.18220
C          0.22300        0.62110        0.20230
H          0.29860        1.01540       -0.81250
C         -1.17100        0.03990        0.44680
H         -1.90390        0.84760        0.40870
H         -1.20810       -0.38880        1.45020
C         -1.51900       -1.01440       -0.59000
H         -0.79860       -1.83390       -0.57320
H         -1.54670       -0.58070       -1.59120
S         -3.17020       -1.71780       -0.24230
C         -3.27470       -2.85040       -1.65650
H         -3.22600       -2.28300       -2.58190
H         -4.22960       -3.35930       -1.58230
H         -2.46360       -3.57180       -1.60680
C          0.52420        1.70100        1.25410
O          0.29780        1.50780        2.43330
N          1.09110        2.84110        0.82430
H          1.26410        3.51840        1.55440
C          2.31220       -0.48140       -0.48360
O          2.46120        0.25820       -1.43660
C          3.28950       -1.57210       -0.10720
H          3.76540       -1.32440        0.83960
H          4.05140       -1.65310       -0.87670
H          2.77610       -2.52470       -0.00110
C          1.46450        3.21670       -0.52170
H          0.59080        3.52580       -1.10260
H          2.15630        4.05380       -0.46850
H          1.96200        2.39170       -1.03380
