29
-42.53539744
N          1.33590       -0.60180        0.02870
H          1.08020       -1.16130        0.82770
C          0.38750        0.42390       -0.36000
H          0.79100        0.87560       -1.26820
C         -0.99480       -0.16390       -0.68030
H         -0.89120       -0.81040       -1.55510
H         -1.65910        0.66230       -0.94430
C         -1.61930       -0.94380        0.46820
H         -1.60470       -0.35380        1.38380
H         -1.11350       -1.89450        0.63980
S         -3.37660       -1.31580        0.16620
C         -3.22100       -2.60200       -1.10830
H         -2.83450       -2.17470       -2.02880
H         -4.21900       -2.99210       -1.27610
H         -2.57030       -3.39310       -0.74630
C          0.32130        1.45910        0.77070
O         -0.04070        1.15520        1.89380
N          0.71540        2.71090        0.48210
H          0.67290        3.34770        1.26590
C          2.64390       -0.50040       -0.31690
O          3.04900        0.34140       -1.09300
C          3.52480       -1.55030        0.32020
H          3.10980       -2.54250        0.16020
H          3.59240       -1.36760        1.39100
H          4.51930       -1.49700       -0.11250
C          1.29950        3.20940       -0.74380
H          2.12290        2.57060       -1.07110
H          0.55270        3.27110       -1.53940
H          1.68900        4.20750       -0.56070
