29
-42.54011792
N          1.58320       -0.83140        0.42420
H          1.83200       -1.29490        1.28490
C          0.24300       -0.28220        0.36480
H          0.09090        0.07560       -0.65420
C         -0.78950       -1.35530        0.71250
H         -0.63320       -1.66890        1.74800
H         -0.64270       -2.21960        0.06150
C         -2.21220       -0.82910        0.59140
H         -2.38250       -0.02750        1.30940
H         -2.93660       -1.62460        0.77030
S         -2.60140       -0.08530       -1.02730
C         -2.45570       -1.54100       -2.10180
H         -3.04570       -2.35350       -1.68730
H         -1.41310       -1.82790       -2.20170
H         -2.85040       -1.25160       -3.06980
C          0.15470        0.86730        1.38030
O          0.16220        0.64230        2.57830
N          0.11520        2.11600        0.89420
H          0.05910        2.83910        1.59790
C          2.55700       -0.44790       -0.43490
O          2.34250        0.27590       -1.38590
C          3.91490       -1.03180       -0.11340
H          4.28490       -0.60390        0.81630
H          4.60760       -0.79240       -0.91470
H          3.84800       -2.11100        0.00040
C          0.11600        2.53700       -0.49060
H         -0.83430        2.29430       -0.97340
H          0.25930        3.61380       -0.52410
H          0.93030        2.06080       -1.03990
