29
-42.53982837
N          1.60300       -0.48800        0.39410
H          1.32080       -0.65790        1.35200
C          0.75540        0.43840       -0.32330
H          1.39550        1.19310       -0.79820
C         -0.01730       -0.30170       -1.43180
H          0.72370       -0.86370       -2.00490
H         -0.49210        0.41150       -2.10490
C         -1.06630       -1.25990       -0.88840
H         -0.70160       -1.78570       -0.00860
H         -1.34900       -1.98380       -1.65300
S         -2.59920       -0.37790       -0.39770
C         -2.85070       -1.03300        1.27400
H         -3.78330       -0.61110        1.63430
H         -2.02630       -0.71780        1.90900
H         -2.92630       -2.11560        1.22990
C         -0.14830        1.09350        0.72070
O         -0.23720        0.61860        1.84360
N         -0.76930        2.23990        0.40320
H         -1.39690        2.57540        1.12210
C          2.78990       -0.91210       -0.08930
O          3.18290       -0.61800       -1.19950
C          3.55640       -1.79410        0.87350
H          3.79120       -1.23800        1.77830
H          4.47850       -2.12260        0.40350
H          2.95860       -2.66180        1.14280
C         -0.90700        2.85890       -0.88990
H         -1.73870        2.41980       -1.44930
H         -1.10140        3.92110       -0.74980
H          0.00950        2.74720       -1.46550
