29
-42.53973524
N          0.75180       -0.15800        0.25220
H          0.43670       -0.76750        0.99120
C         -0.17350        0.86990       -0.17540
H          0.19530        1.24910       -1.13220
C         -1.58890        0.30650       -0.34040
H         -2.21270        1.08430       -0.78650
H         -1.99310        0.09640        0.65230
C         -1.63390       -0.93640       -1.21830
H         -0.91780       -0.86130       -2.03640
H         -2.63070       -1.08830       -1.63190
S         -1.19980       -2.47660       -0.33790
C         -2.74700       -2.75960        0.56680
H         -3.56170       -2.88450       -0.14130
H         -2.94460       -1.92710        1.23600
H         -2.61080       -3.67020        1.14030
C         -0.19080        1.97920        0.89020
O         -0.96360        1.94510        1.82990
N          0.71800        2.96150        0.77090
H          0.65420        3.66860        1.49150
C          1.89140       -0.44920       -0.41060
O          2.30140        0.23220       -1.33150
C          2.59790       -1.67600        0.11280
H          2.83320       -1.55300        1.16740
H          3.51480       -1.83230       -0.44730
H          1.94860       -2.54160       -0.00310
C          1.67590        3.20660       -0.28300
H          2.52220        3.74950        0.13400
H          2.04430        2.27430       -0.70850
H          1.23510        3.81140       -1.08130
