29
-42.53885968
N          0.79420       -0.07200        0.08980
H          0.41480       -0.56850        0.88550
C         -0.13060        0.78090       -0.62380
H          0.40290        1.13250       -1.51750
C         -1.37790        0.01360       -1.09200
H         -1.06510       -0.74480       -1.81330
H         -2.02500        0.72520       -1.60900
C         -2.20920       -0.62170        0.01500
H         -3.15100       -0.98970       -0.39440
H         -2.42450        0.10980        0.79170
S         -1.44030       -2.03240        0.88310
C         -1.29790       -3.22810       -0.47640
H         -1.02190       -4.17690       -0.02850
H         -0.52890       -2.91330       -1.17640
H         -2.25940       -3.31770       -0.97380
C         -0.50920        2.00430        0.22040
O         -1.65700        2.25830        0.53420
N          0.49870        2.81500        0.59240
H          0.20680        3.58640        1.17810
C          1.96000       -0.49160       -0.45320
O          2.40360       -0.03300       -1.48740
C          2.66550       -1.53920        0.37780
H          2.01420       -2.39630        0.53420
H          2.92700       -1.12430        1.34860
H          3.57020       -1.85650       -0.13200
C          1.91260        2.71590        0.32800
H          2.43390        2.22080        1.15270
H          2.10370        2.15730       -0.58490
H          2.32270        3.71870        0.21110
