29
energy: -42.545088205445 gnorm: 0.000047332330 xtb: 6.5.1 (9af7eec)
N         -0.73580       -0.07780        0.72450
H         -1.38820       -0.29500        1.46640
C         -0.45020        1.32620        0.55420
H          0.62680        1.44220        0.38460
C         -1.21250        1.87540       -0.66810
H         -2.28510        1.85570       -0.45880
H         -1.01760        1.19170       -1.49670
C         -0.81560        3.28810       -1.06890
H         -1.17910        4.02420       -0.35240
H         -1.22080        3.52900       -2.05270
S          0.99060        3.55720       -1.13860
C          1.47260        2.30000       -2.35420
H          1.30960        1.30200       -1.95540
H          2.52910        2.45410       -2.54730
H          0.90200        2.45660       -3.26550
C         -0.86870        2.04310        1.83760
O         -1.71360        1.57470        2.57720
N         -0.23440        3.20570        2.05110
H          0.47420        3.51030        1.39820
C         -0.16410       -1.02470       -0.04540
O          0.60690       -0.74670       -0.94470
C         -0.56910       -2.43670        0.31170
H         -0.28980       -2.65320        1.34020
H         -0.06850       -3.13450       -0.35280
H         -1.64600       -2.55130        0.21190
C         -0.51100        4.04910        3.18840
H         -1.29280        3.56830        3.77400
H          0.38190        4.16800        3.80410
H         -0.85290        5.03300        2.86290
