29
energy: -42.540364407314 gnorm: 0.000021536854 xtb: 6.5.1 (9af7eec)
N         -0.07730       -0.64140        0.85680
H          0.74040       -1.12030        0.51400
C         -0.23510        0.75050        0.46730
H         -0.81600        1.23910        1.25950
C          1.13470        1.40740        0.32140
H          1.64530        0.98050       -0.54450
H          1.72260        1.19680        1.21820
C          1.01090        2.91000        0.11680
H          0.41740        3.37660        0.90430
H          0.55850        3.11950       -0.85080
S          2.63280        3.73730        0.08690
C          2.98240        3.80630        1.86900
H          2.18400        4.34310        2.37390
H          3.91770        4.34380        1.98010
H          3.08600        2.80320        2.27230
C         -1.04510        0.82590       -0.84720
O         -0.53730        1.07810       -1.92030
N         -2.34890        0.57210       -0.65890
H         -2.66040        0.27920        0.26150
C         -1.03340       -1.32640        1.51860
O         -2.09550       -0.81870        1.83230
C         -0.66340       -2.75580        1.83660
H         -0.55070       -3.32110        0.91360
H         -1.45020       -3.20490        2.43520
H          0.27480       -2.79180        2.38530
C         -3.29350        0.51760       -1.74780
H         -2.77250        0.81370       -2.65690
H         -3.68830       -0.49320       -1.86880
H         -4.12180        1.20280       -1.56260
