29
energy: -42.541427576582 gnorm: 0.000024707585 xtb: 6.5.1 (9af7eec)
N         -1.76070       -0.91290        1.21390
H         -1.56480       -1.90700        1.18820
C         -0.80170       -0.10340        0.50000
H         -1.33340        0.51760       -0.23450
C         -0.05810        0.83990        1.46400
H         -0.82130        1.43090        1.97540
H          0.57920        1.52500        0.90210
C          0.77800        0.10280        2.49980
H          0.25180       -0.77140        2.87710
H          1.01560        0.76790        3.33030
S          2.38090       -0.47600        1.81750
C          2.31620       -2.24310        2.22030
H          1.51600       -2.71290        1.65440
H          2.17230       -2.36470        3.29010
H          3.27390       -2.65990        1.92610
C          0.13840       -1.06690       -0.22920
O          0.09410       -2.26690       -0.02040
N          0.94390       -0.49200       -1.13500
H          0.98280        0.51360       -1.18290
C         -2.93290       -0.42740        1.67670
O         -3.22210        0.74930        1.61050
C         -3.82430       -1.48400        2.29450
H         -3.29770       -1.99920        3.09440
H         -4.11030       -2.21290        1.53940
H         -4.71690       -1.01220        2.69390
C          1.99640       -1.22130       -1.80030
H          2.96520       -1.00080       -1.34560
H          1.78440       -2.28300       -1.69000
H          2.02100       -0.95970       -2.85750
