29
energy: -42.541885528976 gnorm: 0.000040859215 xtb: 6.5.1 (9af7eec)
N         -1.55350       -0.69050       -0.63530
H         -1.88980       -0.20540       -1.45180
C         -0.18440       -0.37900       -0.24830
H          0.17390        0.36740       -0.96390
C         -0.10160        0.21840        1.16350
H          0.94690        0.43270        1.37750
H         -0.45640       -0.51130        1.89340
C         -0.94150        1.48070        1.31030
H         -0.76360        1.95070        2.27800
H         -2.00280        1.24940        1.22390
S         -0.63940        2.73610        0.02130
C          1.07830        3.18140        0.39760
H          1.15810        3.44220        1.44920
H          1.31640        4.04240       -0.21790
H          1.74040        2.35700        0.14980
C          0.79060       -1.57010       -0.35680
O          1.82130       -1.46840       -0.99320
N          0.42120       -2.65640        0.33020
H         -0.46700       -2.64800        0.82710
C         -2.45030       -1.41150        0.06500
O         -2.17700       -2.03450        1.07850
C         -3.83870       -1.39680       -0.53360
H         -4.21650       -0.37790       -0.58680
H         -4.50190       -1.99400        0.08550
H         -3.81520       -1.81320       -1.53840
C          1.21370       -3.86040        0.35840
H          1.49530       -4.10500        1.38390
H          0.65510       -4.69700       -0.06540
H          2.11150       -3.68690       -0.23310
