29
energy: -42.540006613069 gnorm: 0.000038579833 xtb: 6.5.1 (9af7eec)
N         -1.32860       -1.15880        0.12010
H         -1.67040       -1.64920       -0.69810
C         -0.83030        0.16710       -0.15400
H         -1.34980        0.88880        0.49220
C          0.68010        0.26730        0.13310
H          0.82020        0.01730        1.18620
H          1.02660        1.29090       -0.02050
C          1.48810       -0.67850       -0.74090
H          1.43190       -0.39100       -1.79070
H          1.14540       -1.70760       -0.63620
S          3.25920       -0.64150       -0.31260
C          3.23500       -1.69200        1.16670
H          2.56390       -1.27370        1.91060
H          4.24880       -1.71110        1.55190
H          2.92300       -2.69550        0.89000
C         -1.14260        0.46510       -1.62310
O         -1.57100       -0.39280       -2.37000
N         -0.89930        1.73160       -1.99800
H         -0.55260        2.39280       -1.32170
C         -1.40140       -1.68870        1.35940
O         -1.01330       -1.09860        2.34690
C         -2.00210       -3.07810        1.38790
H         -3.03260       -3.04030        1.04210
H         -1.97870       -3.45920        2.40440
H         -1.44160       -3.74480        0.73680
C         -1.09350        2.19750       -3.35040
H         -1.46840        1.35940       -3.93490
H         -1.82000        3.01100       -3.37570
H         -0.15060        2.54410       -3.77670
