29
energy: -42.539526752106 gnorm: 0.000016305211 xtb: 6.5.1 (9af7eec)
N         -0.80130       -0.78260        0.08300
H         -1.21020       -0.95270       -0.82260
C         -0.92270        0.56490        0.61370
H         -0.06610        0.73010        1.27780
C         -0.91490        1.58810       -0.51660
H         -1.10300        2.57140       -0.08390
H         -1.73800        1.36910       -1.20160
C          0.39860        1.60790       -1.27960
H          0.33790        2.29380       -2.12560
H          0.66590        0.61190       -1.63780
S          1.76640        2.18740       -0.20760
C          3.10200        2.11540       -1.43220
H          3.22400        1.09290       -1.77970
H          4.00510        2.44650       -0.93120
H          2.87260        2.77820       -2.26240
C         -2.22240        0.67840        1.44120
O         -3.20970        1.25840        1.03720
N         -2.12980        0.05690        2.62580
H         -1.28840       -0.47160        2.83270
C         -0.32440       -1.81600        0.80750
O          0.03570       -1.69230        1.96380
C         -0.27370       -3.12590        0.05360
H         -1.28320       -3.44860       -0.19380
H          0.19740       -3.87960        0.67740
H          0.29340       -3.01330       -0.86760
C         -3.23370       -0.02360        3.55020
H         -3.55850       -1.05840        3.67720
H         -2.94290        0.37910        4.52150
H         -4.05360        0.56600        3.14290
