29
energy: -42.540741059399 gnorm: 0.000030880515 xtb: 6.5.1 (9af7eec)
N         -2.25360       -1.43350        0.11480
H         -2.08500       -2.25870       -0.43870
C         -1.63570       -0.19870       -0.33920
H         -1.51260        0.43880        0.54420
C         -0.28700       -0.47940       -0.99310
H          0.11250        0.46180       -1.37340
H         -0.44720       -1.13540       -1.85110
C          0.70250       -1.09360       -0.01570
H          0.37940       -2.07630        0.33070
H          0.83960       -0.44430        0.84880
S          2.37210       -1.27720       -0.72380
C          2.07080       -2.60570       -1.92380
H          1.61260       -3.45210       -1.41930
H          3.04100       -2.89120       -2.31600
H          1.44080       -2.24550       -2.73140
C         -2.58610        0.51060       -1.33180
O         -2.39780        0.51600       -2.53060
N         -3.62810        1.08890       -0.71610
H         -3.74230        0.95050        0.28250
C         -3.15980       -1.46790        1.11480
O         -3.51190       -0.46290        1.70540
C         -3.67770       -2.85090        1.43320
H         -4.22620       -3.24630        0.58050
H         -4.34290       -2.79560        2.28970
H         -2.85200       -3.52140        1.66020
C         -4.68430        1.75620       -1.43740
H         -4.80260        2.77740       -1.07310
H         -4.40850        1.77530       -2.49070
H         -5.63060        1.22450       -1.31940
