29
energy: -42.543719461310 gnorm: 0.000023471055 xtb: 6.5.1 (9af7eec)
N         -1.20200       -0.74060        0.02700
H         -0.94590       -1.38290       -0.70700
C         -0.40250        0.46500        0.14530
H         -0.29750        0.68920        1.21620
C          0.96500        0.27020       -0.50020
H          1.41720        1.25570       -0.63080
H          0.82840       -0.15420       -1.49700
C          1.91710       -0.59870        0.30770
H          2.05650       -0.20640        1.31370
H          2.88370       -0.64540       -0.19340
S          1.37010       -2.34020        0.49160
C          0.82470       -2.34450        2.22360
H          1.65900       -2.06950        2.86280
H          0.51230       -3.35960        2.44650
H         -0.00940       -1.66310        2.36160
C         -1.14550        1.65910       -0.50190
O         -0.73670        2.23160       -1.49070
N         -2.26700        1.97700        0.16010
H         -2.53640        1.41800        0.96410
C         -2.15720       -1.08430        0.90990
O         -2.50180       -0.34170        1.81700
C         -2.75740       -2.44810        0.67060
H         -3.31800       -2.44130       -0.26190
H         -3.42960       -2.69550        1.48690
H         -1.97330       -3.19870        0.59990
C         -3.15340        3.02940       -0.27140
H         -3.27620        3.77030        0.52010
H         -2.70920        3.50240       -1.14600
H         -4.13270        2.62530       -0.53490
