29
energy: -42.544228855671 gnorm: 0.000030439675 xtb: 6.5.1 (9af7eec)
N         -1.84190       -0.13130        0.91770
H         -2.85300       -0.18770        0.85900
C         -1.20560        0.84730        0.05610
H         -0.23240        0.43060       -0.24140
C         -2.04250        1.09720       -1.20130
H         -2.10270        0.17050       -1.77710
H         -1.50700        1.83360       -1.80410
C         -3.43860        1.65370       -0.94570
H         -3.85670        2.05850       -1.86770
H         -3.39640        2.44640       -0.20140
S         -4.65930        0.44910       -0.31650
C         -4.91280       -0.56750       -1.80010
H         -5.21270        0.07400       -2.62400
H         -5.70750       -1.26750       -1.56520
H         -4.00450       -1.10970       -2.04610
C         -0.90350        2.15820        0.82130
O         -1.40970        3.22750        0.54070
N         -0.00870        1.97660        1.80080
H          0.34850        1.03930        1.96990
C         -1.16740       -0.92630        1.76540
O          0.04000       -0.84050        1.93050
C         -2.03780       -1.92560        2.49020
H         -2.77710       -1.40190        3.09210
H         -1.41870       -2.54220        3.13490
H         -2.55910       -2.55800        1.77540
C          0.41780        3.04240        2.67300
H          1.50030        3.16720        2.61720
H         -0.07070        3.95930        2.34650
H          0.13760        2.82940        3.70640
