29
energy: -42.538248858290 gnorm: 0.000024852079 xtb: 6.5.1 (9af7eec)
N         -2.44470        0.27070        0.60540
H         -3.19350       -0.00580       -0.00830
C         -1.77480        1.52710        0.31370
H         -0.75570        1.43170        0.71160
C         -1.68870        1.76960       -1.19560
H         -1.11140        0.95310       -1.63770
H         -1.14000        2.69930       -1.35440
C         -3.03720        1.89180       -1.89350
H         -3.59180        2.73490       -1.48580
H         -3.63920        0.98510       -1.81500
S         -2.85040        2.24650       -3.67060
C         -2.35540        0.60570       -4.27800
H         -1.38130        0.33370       -3.88240
H         -2.30200        0.68150       -5.35850
H         -3.10560       -0.12850       -3.99640
C         -2.45460        2.68240        1.08590
O         -3.12690        3.54520        0.55900
N         -2.21050        2.61400        2.40330
H         -1.68530        1.82440        2.76570
C         -2.17420       -0.46640        1.70260
O         -1.36420       -0.11210        2.54070
C         -2.95590       -1.75620        1.78900
H         -4.01930       -1.54010        1.86990
H         -2.63710       -2.30980        2.66700
H         -2.78800       -2.36090        0.90060
C         -2.76970        3.55130        3.34630
H         -1.97460        4.02850        3.92070
H         -3.31510        4.30700        2.78300
H         -3.45200        3.04750        4.03370
