29
energy: -42.539089011063 gnorm: 0.000033889090 xtb: 6.5.1 (9af7eec)
N         -1.97140       -0.06360        0.12020
H         -2.67710       -0.11760        0.84270
C         -2.41080        0.56170       -1.10150
H         -1.53710        1.04410       -1.55620
C         -3.00130       -0.46890       -2.08250
H         -3.35760        0.05370       -2.97300
H         -3.85580       -0.96190       -1.61430
C         -1.96520       -1.51350       -2.46950
H         -1.67210       -2.10270       -1.60240
H         -1.07300       -1.05520       -2.89560
S         -2.61740       -2.71470       -3.67300
C         -2.48200       -1.73810       -5.19810
H         -3.16250       -0.89210       -5.16500
H         -2.75790       -2.39740       -6.01390
H         -1.45560       -1.40410       -5.32110
C         -3.49260        1.58630       -0.74560
O         -4.12470        1.50970        0.28770
N         -3.69220        2.53300       -1.68060
H         -3.10180        2.55870       -2.49650
C         -0.66140       -0.24860        0.40730
O          0.21670       -0.03060       -0.40140
C         -0.41580       -0.77470        1.80330
H         -0.75500       -0.04650        2.53680
H          0.64650       -0.95390        1.93920
H         -0.96250       -1.70240        1.95480
C         -4.69170        3.56590       -1.54410
H         -5.21550        3.39020       -0.60630
H         -4.22710        4.55290       -1.51980
H         -5.40300        3.52340       -2.37070
