29
energy: -42.540678733739 gnorm: 0.000028989310 xtb: 6.5.1 (9af7eec)
N         -1.93690       -0.07930        0.10370
H         -2.57330       -0.20630        0.87420
C         -2.50320        0.55270       -1.08020
H         -3.57230        0.68280       -0.88610
C         -1.87270        1.92860       -1.34600
H         -2.11980        2.23540       -2.36490
H         -0.78860        1.84450       -1.26400
C         -2.38120        2.99860       -0.39310
H         -3.46320        3.11670       -0.48300
H         -1.89360        3.95080       -0.60660
S         -2.02130        2.61140        1.36060
C         -2.47810        4.21440        2.07430
H         -1.82520        4.98870        1.68020
H         -2.34800        4.13030        3.14790
H         -3.51670        4.43320        1.84110
C         -2.42260       -0.31940       -2.35340
O         -3.43030       -0.58790       -2.97910
N         -1.18540       -0.68080       -2.70500
H         -0.41170       -0.44920       -2.08300
C         -0.62900       -0.27530        0.37100
O          0.26440       -0.11870       -0.44580
C         -0.36750       -0.72880        1.78650
H         -0.63190        0.07550        2.47030
H          0.68630       -0.96470        1.90030
H         -0.96500       -1.60550        2.02410
C         -0.91800       -1.49050       -3.86740
H         -1.86100       -1.66200       -4.38450
H         -0.22510       -0.97470       -4.53410
H         -0.48360       -2.44890       -3.57700
