29
energy: -42.537639757917 gnorm: 0.000049054449 xtb: 6.5.1 (9af7eec)
N         -1.14770        0.73740        0.56900
H         -0.29710        0.96630        1.06230
C         -1.60000        1.70990       -0.38900
H         -2.17610        1.17370       -1.15290
C         -2.52380        2.76370        0.26060
H         -3.38170        2.23840        0.68500
H         -2.88500        3.44420       -0.51470
C         -1.84020        3.58100        1.34690
H         -2.46290        4.43610        1.61620
H         -0.86090        3.93320        1.01920
S         -1.59250        2.61700        2.88370
C         -0.85700        3.93650        3.88750
H          0.06160        4.27720        3.41750
H         -0.64060        3.50910        4.86070
H         -1.56300        4.75650        3.99000
C         -0.37850        2.39210       -1.00580
O          0.68920        2.45530       -0.43140
N         -0.61020        2.94640       -2.21170
H         -1.50970        2.82580       -2.64900
C         -1.85930       -0.37380        0.86190
O         -2.89120       -0.65370        0.28730
C         -1.23950       -1.21070        1.95660
H         -0.21430       -1.46710        1.70160
H         -1.82020       -2.11780        2.09290
H         -1.23900       -0.63790        2.88150
C          0.40400        3.65990       -2.95060
H          0.09000        4.68780       -3.14080
H          1.30750        3.66320       -2.34350
H          0.60980        3.16590       -3.90150
