29
energy: -42.544447302997 gnorm: 0.000038398138 xtb: 6.5.1 (9af7eec)
N         -1.11180        1.10340        0.18580
H         -1.81080        1.59970        0.73120
C         -0.64780        1.78580       -1.01010
H         -0.49020        1.01480       -1.77850
C         -1.71500        2.76060       -1.51780
H         -2.64760        2.20500       -1.64560
H         -1.39580        3.11810       -2.49940
C         -1.97240        3.99450       -0.65900
H         -2.71630        4.62080       -1.15150
H         -1.05460        4.55950       -0.51990
S         -2.63790        3.64290        1.01310
C         -1.20050        4.10110        2.02740
H         -0.31290        3.60580        1.64710
H         -1.41080        3.78080        3.04280
H         -1.07480        5.17950        1.99680
C          0.73290        2.43810       -0.76450
O          0.92490        3.64010       -0.74790
N          1.69110        1.52170       -0.57830
H          1.42830        0.53810       -0.55950
C         -0.72780       -0.13680        0.53010
O          0.13240       -0.75400       -0.08000
C         -1.44360       -0.68520        1.74170
H         -1.25660       -0.04800        2.60320
H         -1.08320       -1.68810        1.95010
H         -2.51550       -0.71580        1.56010
C          3.06170        1.87200       -0.29980
H          3.72380        1.42050       -1.03980
H          3.14980        2.95660       -0.34800
H          3.35340        1.52730        0.69430
