29
energy: -42.542288401093 gnorm: 0.000047471739 xtb: 6.5.1 (9af7eec)
N         -1.45470        0.38940        0.56150
H         -1.92330        0.83960        1.33150
C         -0.75530        1.24940       -0.37900
H         -0.84250        0.78090       -1.36750
C         -1.39960        2.63180       -0.39690
H         -1.24660        3.10640        0.57590
H         -2.47080        2.51920       -0.57720
C         -0.79860        3.54200       -1.46020
H          0.25500        3.72270       -1.26120
H         -1.33090        4.49270       -1.47550
S         -0.92680        2.84680       -3.14770
C          0.80580        2.39280       -3.44780
H          1.41480        3.29220       -3.46430
H          0.83540        1.90700       -4.41760
H          1.15090        1.71080       -2.67670
C          0.73930        1.32610        0.00340
O          1.24150        2.30710        0.51590
N          1.40530        0.20320       -0.30910
H          0.86910       -0.60090       -0.62540
C         -1.44680       -0.95610        0.47250
O         -0.81210       -1.54820       -0.38280
C         -2.28760       -1.65090        1.51750
H         -1.91010       -1.42190        2.51200
H         -2.24440       -2.72390        1.35650
H         -3.32100       -1.31810        1.45000
C          2.79510        0.00780        0.02540
H          3.35660       -0.28650       -0.86250
H          3.18430        0.95040        0.40780
H          2.90680       -0.76520        0.78830
