29
energy: -42.542081669227 gnorm: 0.000037050914 xtb: 6.5.1 (9af7eec)
N         -1.49340        0.19890        0.58010
H         -1.85720        0.89060        1.21640
C         -0.86440        0.68880       -0.63500
H         -0.97820       -0.09140       -1.39750
C         -1.53290        1.97900       -1.09640
H         -1.24300        2.78680       -0.41940
H         -2.61820        1.86010       -1.06060
C         -1.08860        2.36270       -2.50050
H         -0.00460        2.45830       -2.53560
H         -1.53930        3.30650       -2.80800
S         -1.50350        1.11820       -3.76520
C         -3.29880        1.37040       -3.88380
H         -3.78460        1.04960       -2.96690
H         -3.64250        0.76050       -4.71220
H         -3.50370        2.41840       -4.08350
C          0.64300        0.91110       -0.37920
O          1.12410        2.01430       -0.20960
N          1.33300       -0.23710       -0.35180
H          0.82210       -1.11160       -0.41110
C         -1.44040       -1.09680        0.95580
O         -0.87420       -1.94500        0.29130
C         -2.15170       -1.39140        2.25660
H         -1.64090       -0.89080        3.07690
H         -2.14370       -2.46270        2.43410
H         -3.17950       -1.03840        2.21680
C          2.74660       -0.28960       -0.07210
H          3.11030        0.73400        0.00600
H          2.93710       -0.81480        0.86600
H          3.27160       -0.80190       -0.87950
