29
energy: -42.543631681976 gnorm: 0.000041857361 xtb: 6.5.1 (9af7eec)
N         -2.54100       -1.33790        1.34990
H         -2.91680       -1.52090        2.27270
C         -2.16830        0.03860        1.13510
H         -1.22400        0.06080        0.57730
C         -3.23620        0.81150        0.33430
H         -3.27980        1.84820        0.67460
H         -4.21210        0.35620        0.51560
C         -2.93450        0.79190       -1.15770
H         -3.72090        1.29860       -1.71690
H         -2.81980       -0.22760       -1.51800
S         -1.35580        1.65820       -1.50460
C         -0.44620        0.34520       -2.36840
H         -0.53150       -0.57990       -1.80500
H          0.58930        0.66470       -2.42560
H         -0.85450        0.22660       -3.36830
C         -1.95810        0.68710        2.50500
O         -2.35170        0.16580        3.52990
N         -1.31990        1.86680        2.44540
H         -1.01510        2.21440        1.54800
C         -2.14890       -2.34690        0.54590
O         -1.56770       -2.15740       -0.50600
C         -2.52360       -3.71850        1.05960
H         -2.01170       -3.91100        1.99990
H         -2.23170       -4.46950        0.33140
H         -3.59630       -3.77480        1.22920
C         -1.04680        2.67120        3.61120
H         -1.53100        3.64580        3.52850
H         -1.44360        2.14190        4.47580
H          0.02760        2.81520        3.73610
