29
energy: -42.541642995028 gnorm: 0.000047749079 xtb: 6.5.1 (9af7eec)
N         -2.21210       -2.33450        0.14270
H         -1.81160       -2.93650        0.84710
C         -1.57240       -1.05480       -0.04290
H         -2.14410       -0.53900       -0.82610
C         -1.58190       -0.18780        1.22740
H         -2.54960        0.30660        1.33160
H         -0.81630        0.57840        1.09150
C         -1.31730       -0.97450        2.50600
H         -2.17020       -1.60510        2.75910
H         -1.13160       -0.29610        3.33890
S          0.10140       -2.12240        2.41240
C          1.48530       -0.96030        2.49800
H          1.51390       -0.36630        1.58850
H          2.38650       -1.55890        2.58210
H          1.36850       -0.33450        3.37850
C         -0.13500       -1.19100       -0.57270
O          0.68570       -0.30460       -0.43450
N          0.11080       -2.33590       -1.23010
H         -0.63550       -3.00510       -1.33550
C         -3.38150       -2.66980       -0.45850
O         -3.92370       -1.95920       -1.27530
C         -3.91480       -4.01770       -0.02140
H         -3.14720       -4.78300       -0.10880
H         -4.76700       -4.28400       -0.63930
H         -4.23420       -3.96350        1.01730
C          1.38710       -2.63730       -1.82750
H          1.28290       -2.79430       -2.90240
H          2.04170       -1.78580       -1.64880
H          1.82210       -3.52980       -1.37340
