20
energy: -19.993837866309 gnorm: 0.000009577169 xtb: 6.5.1 (9af7eec)
C         -2.50060       -0.04920        0.88370
C         -1.77290        0.98480        0.03330
C         -0.61220        0.36780       -0.74330
C          0.12320        1.39840       -1.59620
C          1.28480        0.78160       -2.37150
C          2.01530        1.81630       -3.21870
H         -3.32240        0.41080        1.42780
H         -1.81990       -0.49730        1.60440
H         -2.90460       -0.84180        0.25740
H         -1.39250        1.78120        0.67730
H         -2.47680        1.43690       -0.66950
H         -0.99310       -0.42840       -1.38770
H          0.09040       -0.08600       -0.03990
H          0.50340        2.19500       -0.95170
H         -0.57910        1.85170       -2.30020
H          0.90500       -0.01340       -3.01760
H          1.98680        0.32780       -1.66810
H          2.83780        1.35650       -3.76170
H          2.41860        2.60750       -2.59020
H          1.33660        2.26620       -3.94020
