20
energy: -19.992962476445 gnorm: 0.000036295737 xtb: 6.5.1 (9af7eec)
C         -2.45980        0.08870        1.04020
C         -2.00130        0.89040       -0.17210
C         -0.71020        0.32700       -0.76220
C         -0.15000        1.16170       -1.91400
C         -1.01990        1.13100       -3.16910
C         -0.36530        1.88080       -4.32320
H         -3.38190        0.49900        1.44560
H         -1.70260        0.10940        1.82130
H         -2.63780       -0.94890        0.76530
H         -1.83860        1.93020        0.12150
H         -2.78930        0.87620       -0.92670
H         -0.88830       -0.69360       -1.10990
H          0.04140        0.27770        0.03010
H          0.84230        0.78080       -2.16990
H         -0.02960        2.19660       -1.58430
H         -1.99060        1.58220       -2.95680
H         -1.19110        0.09260       -3.46240
H         -0.99910        1.85470       -5.20680
H          0.59360        1.43290       -4.57550
H         -0.19530        2.92110       -4.05370
