20
energy: -19.992925409751 gnorm: 0.000022264107 xtb: 6.5.1 (9af7eec)
C         -2.73550       -0.00060        0.36570
C         -1.73910        0.88270       -0.37520
C         -0.49730        0.10410       -0.80310
C          0.49720        0.98660       -1.55410
C          1.80050        0.26910       -1.90740
C          1.61630       -0.83900       -2.93770
H         -3.61090        0.57280        0.66220
H         -2.28100       -0.42040        1.26070
H         -3.06230       -0.82220       -0.26840
H         -1.44110        1.71280        0.26980
H         -2.21940        1.30840       -1.25950
H         -0.80490       -0.72890       -1.43750
H         -0.01140       -0.31280        0.08260
H          0.73380        1.85400       -0.93200
H          0.03110        1.35720       -2.47040
H          2.23820       -0.15010       -0.99840
H          2.50540        1.00410       -2.30390
H          2.58000       -1.26060       -3.21510
H          1.14240       -0.44800       -3.83560
H          0.99820       -1.64100       -2.54300
