20
energy: -19.992925159302 gnorm: 0.000016114240 xtb: 6.5.1 (9af7eec)
C         -2.90440       -0.17060       -0.79350
C         -1.71020        0.73840       -0.52950
C         -0.56480       -0.00990        0.14860
C          0.62970        0.90220        0.41900
C          1.83370        0.16780        1.00980
C          1.58960       -0.34570        2.42410
H         -3.70780        0.38120       -1.27620
H         -3.28370       -0.58300        0.13920
H         -2.61870       -0.99710       -1.44070
H         -2.02170        1.57130        0.10540
H         -1.35830        1.15830       -1.47490
H         -0.24820       -0.83810       -0.49020
H         -0.92710       -0.43270        1.08720
H          0.32710        1.70180        1.09980
H          0.93260        1.36910       -0.52190
H          2.68480        0.85290        1.02690
H          2.09830       -0.67000        0.36050
H          2.49810       -0.78760        2.82750
H          0.81130       -1.10410        2.43590
H          1.28640        0.47000        3.07730
